LTspice 24.0.12 for Windows
Circuit: * C:\Users\joshg\OneDrive\Academia\UCONN\Courses\ECE 4095\Project 1\LT Spice - Final\20250907- Project 1 - Final.asc
Start Time: Mon Dec  1 20:46:19 2025
solver = Normal
Maximum thread count: 16
tnom = 27
temp = 27
method = modified trap
WARNING: Less than two connections to node n008.  This node is used by d9.
WARNING: Less than two connections to node n003.  This node is used by d10.
Direct Newton iteration failed to find .op point.  (Use ".option noopiter" to skip.)
Starting Gmin stepping
Gmin = 10
Gmin = 1.07374
Gmin = 0.115292
Gmin = 0.0123794
Gmin = 0.00132923
Gmin = 0.000142725
Gmin = 1.5325e-05
Gmin = 1.6455e-06
Gmin = 1.76685e-07
Gmin = 1.89714e-08
Gmin = 2.03704e-09
Gmin = 2.18725e-10
Gmin = 2.34854e-11
Gmin = 2.52173e-12
Gmin = 2.70769e-13
Gmin = 0
Gmin stepping succeeded in finding the operating point.

Heightened Def Con from 0.28192 to 0.28192
Total elapsed time: 3.577 seconds.

